include ./omnetpp.ini
#include ./include/churn.ini
#include ./include/seed.ini

num-rngs=1
seed-0-mt=9

# -----------------------------
# --------- Churn -------------
# -----------------------------
*.churnModel = "BoundedChurn"
*.churnModerator.leave = true

*.churnModerator.joinStart = 1s
*.churnModerator.joinDuration = 399s
*.churnModerator.leaveStart = 100s
*.churnModerator.leaveDuration = 399s

[General]
debug-on-errors = false

[Config Multitree_Network]
network = Multitree_Network
sim-time-limit = 400s

# Controlling the log output
cmdenv-express-mode = true

# -----------------------------
# ------- Recording -----------
# -----------------------------
**.ppp[*].queue.vector-recording = false
**.retrys.vector-recording = false
**.conntime.vector-recording = false
**.peerNode[*].tree.numTrees.vector-recording = false

record-eventlog = false
**.scalar-recording = false
**.vector-recording = true

# -----------------------------
# Parameter space
# -----------------------------
*.nNodePerRouter = 300

# -----------------------------
# Node settings
# -----------------------------
**.localPort = 9000
**.destPort = 9000

# All Nodes
**.tree.startTime = uniform(1s, 1.001s)
**.tree.sendMissingChunks = true
**.tree.optimize = true
**.tree.delayOptimization = 40ms

**.tree.weightT = 0.4

**.tree.weightK1 = 0.2
**.tree.weightK2 = 0.7
**.tree.weightK3 = 1
**.tree.weightK4 = 2

# Source Node
*.sourceNode.tree.bwCapacity = 4

# Peer Nodes
#*.peerNode[0..6].tree.bwCapacity = 0.6

*.peerNode[*].tree.bwCapacity = 1
*.peerNode[*].tree.retryLeave = 50ms
*.peerNode[*].tree.intervalReportStats = 1s
*.peerNode[*].tree.delaySuccessorInfo = 10ms
*.peerNode[*].tree.delayRetryConnect = 5ms

# Player settings
*.peerNode[*].player.interval_recheckVideoBuffer = 0.5s
*.peerNode[*].player.percent_buffer_low = 0.1
*.peerNode[*].player.percent_buffer_high = 0.2
*.peerNode[*].player.max_skipped_chunk = 3
*.peerNode[*].player.interval_probe_playerStart = 0.5s

*.appSetting.numStripes = 4

*.appSetting.bufferMapSize = 5s
# 1 chunk = <numStripes> packets
*.appSetting.chunkSize = 1250B
*.appSetting.videoStreamBitRate = 100kbps
