include ./omnetpp.ini
#include ./include/churn.ini
include ./include/seed.ini


# -----------------------------
# --------- Churn -------------
# -----------------------------
*.churnModel = "BoundedChurn"
*.churnModerator.leave = true
*.churnModerator.joinStart = 1s
*.churnModerator.joinDuration = 80s
*.churnModerator.leaveStart = 20s
*.churnModerator.leaveDuration = 80s


#*.churnModel = "UniformChurn"
#*.churnModerator.lowerBoundAT = 0s
#*.churnModerator.upperBoundAT = 3s
#*.churnModerator.lowerBoundDT = 4s
#*.churnModerator.upperBoundDT = 14s


[General]
debug-on-errors = true

[Config Multitree_Network]
network = Multitree_Network
sim-time-limit = 150s

# Controlling the log output
cmdenv-express-mode = true

# -----------------------------
# ------- Recording -----------
# -----------------------------
record-eventlog = false
**.scalar-recording = false
**.vector-recording = false

**.globalStatistic.hopCount.result-recording-modes = +histogram

# -----------------------------
# Parameter space
# -----------------------------
*.nNodePerRouter = 30

*.percentGroup1 = 0.2 # 0-20%
*.percentGroup2 = 0.4 # 20-40%
*.percentGroup3 = 0.9 # 40-90%
					  # 90-100%

# -----------------------------
# Node settings
# -----------------------------
**.localPort = 9000
**.destPort = 9000

# -- All Nodes
**.tree.startTime = uniform(1s, 1.001s)
**.tree.delayOptimization = 1s
**.tree.optimize = true

# -- Source Node

# -- Peer Nodes
*.peerNode[*].tree.retryLeave = 1s

# Player settings
*.peerNode[*].player.interval_recheckVideoBuffer = 0.5s
*.peerNode[*].player.percent_buffer_low = 0.1
*.peerNode[*].player.percent_buffer_high = 0.2
*.peerNode[*].player.max_skipped_chunk = 3
*.peerNode[*].player.interval_probe_playerStart = 0.5s

# -----------------------------
# ------- Video Streaming -----
# -----------------------------
# TODO move intervalReconnect and delaySuccessorInfo from appSetting to simple parameters
*.appSetting.intervalReconnect = 2s
*.appSetting.delaySuccessorInfo = 10ms
*.appSetting.numStripes = 3

*.appSetting.bufferMapSize = 20s
*.appSetting.chunkSize = 1250B
*.appSetting.videoStreamBitRate = 100kbps
